@<TRIPOS>MOLECULE
DAA
   38    40     1     0     0
SMALL
bcc


@<TRIPOS>ATOM
      1 C04         24.4960   -14.0640    48.7750 c3         8 DAA      -0.196400
      2 C05         25.6710   -14.9810    49.1630 c          8 DAA       0.905600
      3 O01         26.7650   -14.5450    48.9330 o          8 DAA      -0.853300
      4 O03         25.5350   -16.0850    49.6740 o          8 DAA      -0.853300
      5 C01         20.8670   -14.8160    48.7380 c3         8 DAA      -0.084400
      6 C02         22.3190   -15.3080    48.5910 c3         8 DAA      -0.071400
      7 C03         23.2310   -14.5020    49.5350 c3         8 DAA      -0.063400
      8 H01         20.8230   -13.7470    48.5280 hc         8 DAA       0.030700
      9 H02         20.2300   -15.3520    48.0340 hc         8 DAA       0.030700
     10 H03         22.6490   -15.1690    47.5620 hc         8 DAA       0.039200
     11 H04         22.3730   -16.3650    48.8500 hc         8 DAA       0.039200
     12 H05         23.5150   -15.1230    50.3850 hc         8 DAA       0.030200
     13 H06         22.6980   -13.6200    49.8910 hc         8 DAA       0.030200
     14 H08         24.3190   -14.1360    47.7020 hc         8 DAA       0.023700
     15 H09         24.7390   -13.0340    49.0350 hc         8 DAA       0.023700
     16 O           14.0470   -12.9970    50.7240 o          1 DAA      -0.551200
     17 O           13.5000   -15.2280    51.7770 o          2 DAA      -0.551200
     18 S           14.4710   -14.3240    51.1760 s6         3 DAA       1.080800
     19 H           16.9220   -12.5500    51.2080 hc         4 DAA       0.121700
     20 H           16.4070   -13.4750    49.0280 hc         5 DAA       0.121700
     21 H           20.9840   -14.5130    50.8990 h1         6 DAA       0.119700
     22 H           20.4910   -16.1540    50.3960 h1         7 DAA       0.119700
     23 CL          16.2880   -17.9530    50.4500 cl         9 DAA       0.039600
     24 CL          16.9460   -16.6860    53.4570 cl        10 DAA       0.039600
     25 CL          16.0510   -13.6040    53.7260 cl        11 DAA      -0.044900
     26 CL          14.8900   -15.8140    48.4880 cl        12 DAA      -0.044900
     27 C           16.1340   -16.3290    50.8870 c2        13 DAA      -0.033800
     28 C           16.4060   -15.8090    52.1200 c2        14 DAA      -0.033800
     29 C           16.1410   -14.3400    52.1670 c3        15 DAA       0.001900
     30 C           17.0540   -13.6420    51.1540 c3        16 DAA      -0.161200
     31 C           16.7470   -14.2240    49.7640 c3        17 DAA      -0.161200
     32 C           15.6510   -15.2800    49.9420 c3        18 DAA       0.001900
     33 N           19.0080   -14.6470    50.3030 n         19 DAA      -0.473400
     34 C           18.0610   -14.8490    49.3050 c         20 DAA       0.442000
     35 O           18.2760   -15.4270    48.2540 o         21 DAA      -0.281500
     36 C           18.5140   -13.9870    51.4230 c         22 DAA       0.442000
     37 O           19.1440   -13.7390    52.4360 o         23 DAA      -0.281500
     38 C           20.3800   -15.0780    50.1750 c3        24 DAA       0.057000
@<TRIPOS>BOND
     1     1     2 1   
     2     1     7 1   
     3     1    14 1   
     4     1    15 1   
     5     2     3 1   
     6     2     4 1   
     7     5     6 1   
     8     5     8 1   
     9     5     9 1   
    10     5    38 1   
    11     6     7 1   
    12     6    10 1   
    13     6    11 1   
    14     7    12 1   
    15     7    13 1   
    16    16    18 1   
    17    17    18 1   
    18    18    29 1   
    19    18    32 1   
    20    19    30 1   
    21    20    31 1   
    22    21    38 1   
    23    22    38 1   
    24    23    27 1   
    25    24    28 1   
    26    25    29 1   
    27    26    32 1   
    28    27    28 1   
    29    27    32 1   
    30    28    29 1   
    31    29    30 1   
    32    30    31 1   
    33    30    36 1   
    34    31    32 1   
    35    31    34 1   
    36    33    34 1   
    37    33    36 1   
    38    33    38 1   
    39    34    35 1   
    40    36    37 1   
@<TRIPOS>SUBSTRUCTURE
     1 DAA         1 TEMP              0 ****  ****    0 ROOT
