@<TRIPOS>MOLECULE
DAA
   38    40     1     0     0
SMALL
bcc


@<TRIPOS>ATOM
      1 O           24.8410   -18.1420    53.3910 o          1 DAA      -0.853800
      2 O           23.1280   -19.0150    54.9650 o          2 DAA      -0.853800
      3 C           22.2830   -17.9430    52.8540 c3         3 DAA      -0.196400
      4 C           23.4720   -18.3650    53.7380 c          4 DAA       0.912600
      5 C           20.5720   -16.5210    51.1770 c3         5 DAA      -0.103400
      6 C           21.5600   -17.4830    50.4910 c3         6 DAA      -0.075400
      7 C           22.7720   -17.7140    51.4120 c3         7 DAA      -0.068400
      8 H           19.6100   -17.0180    51.3060 hc         8 DAA       0.053700
      9 H           20.9650   -16.2320    52.1510 hc         9 DAA       0.053700
     10 H           21.8970   -17.0490    49.5500 hc        10 DAA       0.027200
     11 H           21.0650   -18.4340    50.2950 hc        11 DAA       0.027200
     12 H           23.4230   -16.8400    51.3840 hc        12 DAA       0.045200
     13 H           23.3240   -18.5910    51.0730 hc        13 DAA       0.045200
     14 H           21.8510   -17.0210    53.2430 hc        14 DAA       0.020200
     15 H           21.5280   -18.7300    52.8620 hc        15 DAA       0.020200
     16 O           14.0910   -13.0500    50.7330 o         16 DAA      -0.550700
     17 O           13.4780   -15.2680    51.7760 o         17 DAA      -0.550700
     18 S           14.4780   -14.3850    51.1930 s6        18 DAA       1.087800
     19 H           16.9660   -12.6640    51.2700 hc        19 DAA       0.123200
     20 H           16.4720   -13.5800    49.0810 hc        20 DAA       0.123200
     21 H           20.5930   -15.4930    49.2480 h1        21 DAA       0.068200
     22 H           21.1040   -14.4940    50.6370 h1        22 DAA       0.068200
     23 Cl          16.2310   -18.0530    50.5040 cl        23 DAA       0.079600
     24 Cl          16.8600   -16.7970    53.5220 cl        24 DAA       0.079600
     25 Cl          16.0260   -13.6960    53.7720 cl        25 DAA      -0.042400
     26 Cl          14.9160   -15.8880    48.5150 cl        26 DAA      -0.042400
     27 C           16.1040   -16.4260    50.9370 c2        27 DAA      -0.060300
     28 C           16.3640   -15.9100    52.1740 c2        28 DAA      -0.060300
     29 C           16.1290   -14.4360    52.2160 c3        29 DAA      -0.002600
     30 C           17.0750   -13.7580    51.2190 c3        30 DAA      -0.154200
     31 C           16.7820   -14.3360    49.8240 c3        31 DAA      -0.154200
     32 C           15.6610   -15.3670    49.9820 c3        32 DAA      -0.002600
     33 N           19.0230   -14.8060    50.4060 n         33 DAA      -0.493400
     34 C           18.0910   -14.9890    49.3900 c         34 DAA       0.443000
     35 O           18.3130   -15.5720    48.3440 o         35 DAA      -0.277500
     36 C           18.5230   -14.1340    51.5150 c         36 DAA       0.443000
     37 O           19.1380   -13.8980    52.5400 o         37 DAA      -0.277500
     38 C           20.3870   -15.2660    50.3040 c3        38 DAA       0.097000
@<TRIPOS>BOND
     1     1     4 1   
     2     2     4 1   
     3     3     4 1   
     4     3     7 1   
     5     3    14 1   
     6     3    15 1   
     7     5     6 1   
     8     5     8 1   
     9     5     9 1   
    10     5    38 1   
    11     6     7 1   
    12     6    10 1   
    13     6    11 1   
    14     7    12 1   
    15     7    13 1   
    16    16    18 1   
    17    17    18 1   
    18    18    29 1   
    19    18    32 1   
    20    19    30 1   
    21    20    31 1   
    22    21    38 1   
    23    22    38 1   
    24    23    27 1   
    25    24    28 1   
    26    25    29 1   
    27    26    32 1   
    28    27    28 1   
    29    27    32 1   
    30    28    29 1   
    31    29    30 1   
    32    30    31 1   
    33    30    36 1   
    34    31    32 1   
    35    31    34 1   
    36    33    34 1   
    37    33    36 1   
    38    33    38 1   
    39    34    35 1   
    40    36    37 1   
@<TRIPOS>SUBSTRUCTURE
     1 DAA         1 TEMP              0 ****  ****    0 ROOT
